Circuit: *** SPICE deck for cell AND{lay} from library AND

Ignoring BSIM parameter XL
Ignoring BSIM parameter XW
Ignoring BSIM parameter XL
Ignoring BSIM parameter XW
Direct Newton iteration for .op point succeeded.

Date: Thu Aug 04 02:55:10 2022
Total elapsed time: 0.315 seconds.

tnom = 27
temp = 27
method = modified trap
totiter = 3518
traniter = 3494
tranpoints = 1349
accept = 1270
rejected = 79
matrix size = 42
fillins = 24
solver = Normal
Matrix Compiler1: 3.19 KB object code size  1.3/0.7/[0.5]
Matrix Compiler2: off  [0.6]/1.0/1.2

