Circuit: *** SPICE deck for cell full_adder{lay} from library full_adder

Ignoring BSIM parameter XL
Ignoring BSIM parameter XW
Ignoring BSIM parameter XL
Ignoring BSIM parameter XW
Direct Newton iteration for .op point succeeded.

Date: Tue Aug 09 02:23:55 2022
Total elapsed time: 0.760 seconds.

tnom = 27
temp = 27
method = modified trap
totiter = 2725
traniter = 2716
tranpoints = 1262
accept = 1186
rejected = 76
matrix size = 22
fillins = 30
solver = Normal
Matrix Compiler1: 2.19 KB object code size  1.0/0.8/[0.6]
Matrix Compiler2: 2.08 KB object code size  0.4/0.7/[0.3]

