Circuit: *** SPICE deck for cell full_adder{sch} from library full_adder

Ignoring BSIM parameter XL
Ignoring BSIM parameter XW
Ignoring BSIM parameter XL
Ignoring BSIM parameter XW
Warning: Pd = 0 is less than W.
Warning: Ps = 0 is less than W.
Warning: Pd = 0 is less than W.
Warning: Ps = 0 is less than W.
Direct Newton iteration for .op point succeeded.

Date: Wed Aug 17 08:01:35 2022
Total elapsed time: 2.316 seconds.

tnom = 27
temp = 27
method = modified trap
totiter = 3724
traniter = 3692
tranpoints = 1334
accept = 1237
rejected = 97
matrix size = 22
fillins = 0
solver = Normal
Matrix Compiler1: 1.61 KB object code size  1.3/0.5/[0.4]
Matrix Compiler2: 2.72 KB object code size  0.5/1.5/[0.4]

