Circuit: *** SPICE deck for cell inverter_sim{lay} from library inverter_tutorial

Ignoring BSIM parameter XL
Ignoring BSIM parameter XW
Ignoring BSIM parameter XL
Ignoring BSIM parameter XW
Direct Newton iteration for .op point succeeded.

Date: Tue Aug 02 03:19:15 2022
Total elapsed time: 0.087 seconds.

tnom = 27
temp = 27
method = modified trap
totiter = 2974
traniter = 2967
tranpoints = 1340
accept = 1231
rejected = 109
matrix size = 5
fillins = 0
solver = Normal
Matrix Compiler1: 132 bytes object code size  0.1/0.1/[0.1]
Matrix Compiler2: 335 bytes object code size  0.1/0.1/[0.1]

