Circuit: *** SPICE deck for cell nand_sim{lay} from library nand_tutorial

Ignoring BSIM parameter XL
Ignoring BSIM parameter XW
Ignoring BSIM parameter XL
Ignoring BSIM parameter XW
Direct Newton iteration for .op point succeeded.

Date: Wed Aug 03 03:53:07 2022
Total elapsed time: 0.152 seconds.

tnom = 27
temp = 27
method = modified trap
totiter = 3261
traniter = 3237
tranpoints = 1306
accept = 1246
rejected = 60
matrix size = 34
fillins = 18
solver = Normal
Matrix Compiler1: 2.45 KB object code size  0.9/0.7/[0.4]
Matrix Compiler2: off  [0.5]/0.8/0.8

