Circuit: *** SPICE deck for cell nand_sch{sch} from library nand_tutorial

Ignoring BSIM parameter XL
Ignoring BSIM parameter XW
Ignoring BSIM parameter XL
Ignoring BSIM parameter XW
Warning: Pd = 0 is less than W.
Warning: Ps = 0 is less than W.
Warning: Pd = 0 is less than W.
Warning: Ps = 0 is less than W.
Direct Newton iteration for .op point succeeded.

Date: Wed Aug 03 03:16:28 2022
Total elapsed time: 0.215 seconds.

tnom = 27
temp = 27
method = modified trap
totiter = 3183
traniter = 3167
tranpoints = 1340
accept = 1257
rejected = 83
matrix size = 8
fillins = 0
solver = Normal
Matrix Compiler1: 300 bytes object code size  0.2/0.2/[0.1]
Matrix Compiler2: 636 bytes object code size  0.3/0.3/[0.2]

