Circuit: *** SPICE deck for cell NAND{ic} from library NAND

WARNING: Less than two connections to node VDD.  This node is used by VDD.
WARNING: Less than two connections to node A.  This node is used by VA.
WARNING: Less than two connections to node B.  This node is used by VB.
Direct Newton iteration for .op point succeeded.

Date: Tue Aug 09 02:08:53 2022
Total elapsed time: 0.088 seconds.

tnom = 27
temp = 27
method = modified trap
totiter = 2319
traniter = 2316
tranpoints = 1159
accept = 1132
rejected = 27
matrix size = 6
fillins = 0
solver = Normal
Matrix Compiler1: 74 bytes object code size  0.1/0.1/[0.1]
Matrix Compiler2: 238 bytes object code size  0.1/0.1/[0.1]

