Circuit: *** SPICE deck for cell nor_sch{sch} from library nor_tutorial

Ignoring BSIM parameter XL
Ignoring BSIM parameter XW
Ignoring BSIM parameter XL
Ignoring BSIM parameter XW
Warning: Pd = 0 is less than W.
Warning: Ps = 0 is less than W.
Warning: Pd = 0 is less than W.
Warning: Ps = 0 is less than W.
Direct Newton iteration for .op point succeeded.

Date: Tue Aug 02 04:46:09 2022
Total elapsed time: 0.400 seconds.

tnom = 27
temp = 27
method = modified trap
totiter = 2784
traniter = 2769
tranpoints = 1167
accept = 1127
rejected = 40
matrix size = 8
fillins = 0
solver = Normal
Matrix Compiler1: 282 bytes object code size  0.2/0.1/[0.1]
Matrix Compiler2: 682 bytes object code size  0.1/0.2/[0.1]

