Circuit: *** SPICE deck for cell nor_sim{lay} from library nor_tutorial

Ignoring BSIM parameter XL
Ignoring BSIM parameter XW
Ignoring BSIM parameter XL
Ignoring BSIM parameter XW
Direct Newton iteration for .op point succeeded.

Date: Wed Aug 03 02:13:27 2022
Total elapsed time: 0.299 seconds.

tnom = 27
temp = 27
method = modified trap
totiter = 2726
traniter = 2716
tranpoints = 1172
accept = 1130
rejected = 42
matrix size = 38
fillins = 16
solver = Normal
Matrix Compiler1: 2.56 KB object code size  1.0/0.7/[0.5]
Matrix Compiler2: 3.10 KB object code size  0.5/0.9/[0.4]

