Circuit: *** SPICE deck for cell XNOR{lay} from library XNOR

Ignoring BSIM parameter XL
Ignoring BSIM parameter XW
Ignoring BSIM parameter XL
Ignoring BSIM parameter XW
Direct Newton iteration for .op point succeeded.

Date: Thu Aug 04 06:03:37 2022
Total elapsed time: 0.418 seconds.

tnom = 27
temp = 27
method = modified trap
totiter = 3233
traniter = 3206
tranpoints = 1363
accept = 1251
rejected = 112
matrix size = 62
fillins = 32
solver = Normal
Matrix Compiler1: 4.95 KB object code size  2.1/1.4/[0.7]
Matrix Compiler2: off  [1.1]/1.8/1.4

